
---------- Begin Simulation Statistics ----------
simSeconds                                   0.155295                       # Number of seconds simulated (Second)
simTicks                                 155295152397                       # Number of ticks simulated (Tick)
finalTick                                6528725526546                       # Number of ticks from beginning of simulation (restored from checkpoints and never reset) (Tick)
simFreq                                  1000000000000                       # The number of ticks per simulated second ((Tick/Second))
hostSeconds                                   7907.33                       # Real time elapsed on the host (Second)
hostTickRate                                 19639392                       # The number of ticks simulated per host second (ticks/s) ((Tick/Second))
hostMemory                                   11700616                       # Number of bytes of host memory used (Byte)
simInsts                                   3600169368                       # Number of instructions simulated (Count)
simOps                                     7384318589                       # Number of ops (including micro ops) simulated (Count)
hostInstRate                                   455295                       # Simulator instruction rate (inst/s) ((Count/Second))
hostOpRate                                     933856                       # Simulator op (including micro ops) rate (op/s) ((Count/Second))
board.cache_hierarchy.ruby_system.delayHistogram::bucket_size            8                       # delay histogram for all message (Unspecified)
board.cache_hierarchy.ruby_system.delayHistogram::max_bucket           79                       # delay histogram for all message (Unspecified)
board.cache_hierarchy.ruby_system.delayHistogram::samples      5261051                       # delay histogram for all message (Unspecified)
board.cache_hierarchy.ruby_system.delayHistogram::mean     0.582689                       # delay histogram for all message (Unspecified)
board.cache_hierarchy.ruby_system.delayHistogram::stdev     2.126551                       # delay histogram for all message (Unspecified)
board.cache_hierarchy.ruby_system.delayHistogram |     4943026     93.96%     93.96% |      310401      5.90%     99.86% |        6799      0.13%     99.98% |         648      0.01%    100.00% |         126      0.00%    100.00% |          41      0.00%    100.00% |          10      0.00%    100.00% |           0      0.00%    100.00% |           0      0.00%    100.00% |           0      0.00%    100.00% # delay histogram for all message (Unspecified)
board.cache_hierarchy.ruby_system.delayHistogram::total      5261051                       # delay histogram for all message (Unspecified)
board.cache_hierarchy.ruby_system.m_outstandReqHistSeqr::bucket_size            2                       (Unspecified)
board.cache_hierarchy.ruby_system.m_outstandReqHistSeqr::max_bucket           19                       (Unspecified)
board.cache_hierarchy.ruby_system.m_outstandReqHistSeqr::samples    357629500                       (Unspecified)
board.cache_hierarchy.ruby_system.m_outstandReqHistSeqr::mean     1.426691                       (Unspecified)
board.cache_hierarchy.ruby_system.m_outstandReqHistSeqr::gmean     1.287521                       (Unspecified)
board.cache_hierarchy.ruby_system.m_outstandReqHistSeqr::stdev     0.902561                       (Unspecified)
board.cache_hierarchy.ruby_system.m_outstandReqHistSeqr |   247268122     69.14%     69.14% |   103665893     28.99%     98.13% |     5707806      1.60%     99.72% |      117728      0.03%     99.76% |      151398      0.04%     99.80% |       76967      0.02%     99.82% |      208426      0.06%     99.88% |      308042      0.09%     99.97% |      125118      0.03%    100.00% |           0      0.00%    100.00% (Unspecified)
board.cache_hierarchy.ruby_system.m_outstandReqHistSeqr::total    357629500                       (Unspecified)
board.cache_hierarchy.ruby_system.m_latencyHistSeqr::bucket_size          256                       (Unspecified)
board.cache_hierarchy.ruby_system.m_latencyHistSeqr::max_bucket         2559                       (Unspecified)
board.cache_hierarchy.ruby_system.m_latencyHistSeqr::samples    360601270                       (Unspecified)
board.cache_hierarchy.ruby_system.m_latencyHistSeqr::mean     1.271305                       (Unspecified)
board.cache_hierarchy.ruby_system.m_latencyHistSeqr::gmean     1.017536                       (Unspecified)
board.cache_hierarchy.ruby_system.m_latencyHistSeqr::stdev     7.761383                       (Unspecified)
board.cache_hierarchy.ruby_system.m_latencyHistSeqr |   360578030     99.99%     99.99% |       16399      0.00%    100.00% |        1382      0.00%    100.00% |        1097      0.00%    100.00% |        4215      0.00%    100.00% |          84      0.00%    100.00% |          63      0.00%    100.00% |           0      0.00%    100.00% |           0      0.00%    100.00% |           0      0.00%    100.00% (Unspecified)
board.cache_hierarchy.ruby_system.m_latencyHistSeqr::total    360601270                       (Unspecified)
board.cache_hierarchy.ruby_system.m_hitLatencyHistSeqr::bucket_size          256                       (Unspecified)
board.cache_hierarchy.ruby_system.m_hitLatencyHistSeqr::max_bucket         2559                       (Unspecified)
board.cache_hierarchy.ruby_system.m_hitLatencyHistSeqr::samples    359533327                       (Unspecified)
board.cache_hierarchy.ruby_system.m_hitLatencyHistSeqr::mean     1.010314                       (Unspecified)
board.cache_hierarchy.ruby_system.m_hitLatencyHistSeqr::gmean     1.006227                       (Unspecified)
board.cache_hierarchy.ruby_system.m_hitLatencyHistSeqr::stdev     0.596969                       (Unspecified)
board.cache_hierarchy.ruby_system.m_hitLatencyHistSeqr |   359533205    100.00%    100.00% |          74      0.00%    100.00% |           8      0.00%    100.00% |          13      0.00%    100.00% |          26      0.00%    100.00% |           1      0.00%    100.00% |           0      0.00%    100.00% |           0      0.00%    100.00% |           0      0.00%    100.00% |           0      0.00%    100.00% (Unspecified)
board.cache_hierarchy.ruby_system.m_hitLatencyHistSeqr::total    359533327                       (Unspecified)
board.cache_hierarchy.ruby_system.m_missLatencyHistSeqr::bucket_size          256                       (Unspecified)
board.cache_hierarchy.ruby_system.m_missLatencyHistSeqr::max_bucket         2559                       (Unspecified)
board.cache_hierarchy.ruby_system.m_missLatencyHistSeqr::samples      1067943                       (Unspecified)
board.cache_hierarchy.ruby_system.m_missLatencyHistSeqr::mean    89.136357                       (Unspecified)
board.cache_hierarchy.ruby_system.m_missLatencyHistSeqr::gmean    43.813764                       (Unspecified)
board.cache_hierarchy.ruby_system.m_missLatencyHistSeqr::stdev   111.701112                       (Unspecified)
board.cache_hierarchy.ruby_system.m_missLatencyHistSeqr |     1044825     97.84%     97.84% |       16325      1.53%     99.36% |        1374      0.13%     99.49% |        1084      0.10%     99.59% |        4189      0.39%     99.99% |          83      0.01%     99.99% |          63      0.01%    100.00% |           0      0.00%    100.00% |           0      0.00%    100.00% |           0      0.00%    100.00% (Unspecified)
board.cache_hierarchy.ruby_system.m_missLatencyHistSeqr::total      1067943                       (Unspecified)
board.cache_hierarchy.ruby_system.delayVCHist.vnet_0::bucket_size            8                       # delay histogram for vnet_0 (Unspecified)
board.cache_hierarchy.ruby_system.delayVCHist.vnet_0::max_bucket           79                       # delay histogram for vnet_0 (Unspecified)
board.cache_hierarchy.ruby_system.delayVCHist.vnet_0::samples      2374306                       # delay histogram for vnet_0 (Unspecified)
board.cache_hierarchy.ruby_system.delayVCHist.vnet_0::mean     1.025879                       # delay histogram for vnet_0 (Unspecified)
board.cache_hierarchy.ruby_system.delayVCHist.vnet_0::stdev     2.748972                       # delay histogram for vnet_0 (Unspecified)
board.cache_hierarchy.ruby_system.delayVCHist.vnet_0 |     2094504     88.22%     88.22% |      275291     11.59%     99.81% |        4201      0.18%     99.99% |         237      0.01%    100.00% |          42      0.00%    100.00% |          22      0.00%    100.00% |           9      0.00%    100.00% |           0      0.00%    100.00% |           0      0.00%    100.00% |           0      0.00%    100.00% # delay histogram for vnet_0 (Unspecified)
board.cache_hierarchy.ruby_system.delayVCHist.vnet_0::total      2374306                       # delay histogram for vnet_0 (Unspecified)
board.cache_hierarchy.ruby_system.delayVCHist.vnet_1::bucket_size            8                       # delay histogram for vnet_1 (Unspecified)
board.cache_hierarchy.ruby_system.delayVCHist.vnet_1::max_bucket           79                       # delay histogram for vnet_1 (Unspecified)
board.cache_hierarchy.ruby_system.delayVCHist.vnet_1::samples      2804471                       # delay histogram for vnet_1 (Unspecified)
board.cache_hierarchy.ruby_system.delayVCHist.vnet_1::mean     0.224562                       # delay histogram for vnet_1 (Unspecified)
board.cache_hierarchy.ruby_system.delayVCHist.vnet_1::stdev     1.334619                       # delay histogram for vnet_1 (Unspecified)
board.cache_hierarchy.ruby_system.delayVCHist.vnet_1 |     2766248     98.64%     98.64% |       35110      1.25%     99.89% |        2598      0.09%     99.98% |         411      0.01%    100.00% |          84      0.00%    100.00% |          19      0.00%    100.00% |           1      0.00%    100.00% |           0      0.00%    100.00% |           0      0.00%    100.00% |           0      0.00%    100.00% # delay histogram for vnet_1 (Unspecified)
board.cache_hierarchy.ruby_system.delayVCHist.vnet_1::total      2804471                       # delay histogram for vnet_1 (Unspecified)
board.cache_hierarchy.ruby_system.delayVCHist.vnet_2::bucket_size            1                       # delay histogram for vnet_2 (Unspecified)
board.cache_hierarchy.ruby_system.delayVCHist.vnet_2::max_bucket            9                       # delay histogram for vnet_2 (Unspecified)
board.cache_hierarchy.ruby_system.delayVCHist.vnet_2::samples        82274                       # delay histogram for vnet_2 (Unspecified)
board.cache_hierarchy.ruby_system.delayVCHist.vnet_2::mean     0.000365                       # delay histogram for vnet_2 (Unspecified)
board.cache_hierarchy.ruby_system.delayVCHist.vnet_2::stdev     0.027003                       # delay histogram for vnet_2 (Unspecified)
board.cache_hierarchy.ruby_system.delayVCHist.vnet_2 |       82259     99.98%     99.98% |           0      0.00%     99.98% |          15      0.02%    100.00% |           0      0.00%    100.00% |           0      0.00%    100.00% |           0      0.00%    100.00% |           0      0.00%    100.00% |           0      0.00%    100.00% |           0      0.00%    100.00% |           0      0.00%    100.00% # delay histogram for vnet_2 (Unspecified)
board.cache_hierarchy.ruby_system.delayVCHist.vnet_2::total        82274                       # delay histogram for vnet_2 (Unspecified)
board.cache_hierarchy.ruby_system.Directory_Controller.Fetch |      251963     50.10%     50.10% |      250933     49.90%    100.00% (Unspecified)
board.cache_hierarchy.ruby_system.Directory_Controller.Fetch::total       502896                       (Unspecified)
board.cache_hierarchy.ruby_system.Directory_Controller.Data |      108334     49.98%     49.98% |      108439     50.02%    100.00% (Unspecified)
board.cache_hierarchy.ruby_system.Directory_Controller.Data::total       216773                       (Unspecified)
board.cache_hierarchy.ruby_system.Directory_Controller.Memory_Data |      252119     50.11%     50.11% |      250964     49.89%    100.00% (Unspecified)
board.cache_hierarchy.ruby_system.Directory_Controller.Memory_Data::total       503083                       (Unspecified)
board.cache_hierarchy.ruby_system.Directory_Controller.Memory_Ack |      139532     49.98%     49.98% |      139639     50.02%    100.00% (Unspecified)
board.cache_hierarchy.ruby_system.Directory_Controller.Memory_Ack::total       279171                       (Unspecified)
board.cache_hierarchy.ruby_system.Directory_Controller.DMA_READ |         197     83.47%     83.47% |          39     16.53%    100.00% (Unspecified)
board.cache_hierarchy.ruby_system.Directory_Controller.DMA_READ::total          236                       (Unspecified)
board.cache_hierarchy.ruby_system.Directory_Controller.DMA_WRITE |       31200     50.00%     50.00% |       31200     50.00%    100.00% (Unspecified)
board.cache_hierarchy.ruby_system.Directory_Controller.DMA_WRITE::total        62400                       (Unspecified)
board.cache_hierarchy.ruby_system.Directory_Controller.CleanReplacement |      143629     50.20%     50.20% |      142494     49.80%    100.00% (Unspecified)
board.cache_hierarchy.ruby_system.Directory_Controller.CleanReplacement::total       286123                       (Unspecified)
board.cache_hierarchy.ruby_system.Directory_Controller.I.Fetch |      251963     50.10%     50.10% |      250933     49.90%    100.00% (Unspecified)
board.cache_hierarchy.ruby_system.Directory_Controller.I.Fetch::total       502896                       (Unspecified)
board.cache_hierarchy.ruby_system.Directory_Controller.I.DMA_READ |         156     83.42%     83.42% |          31     16.58%    100.00% (Unspecified)
board.cache_hierarchy.ruby_system.Directory_Controller.I.DMA_READ::total          187                       (Unspecified)
board.cache_hierarchy.ruby_system.Directory_Controller.I.DMA_WRITE |       31198     50.00%     50.00% |       31200     50.00%    100.00% (Unspecified)
board.cache_hierarchy.ruby_system.Directory_Controller.I.DMA_WRITE::total        62398                       (Unspecified)
board.cache_hierarchy.ruby_system.Directory_Controller.ID.Memory_Data |         156     83.42%     83.42% |          31     16.58%    100.00% (Unspecified)
board.cache_hierarchy.ruby_system.Directory_Controller.ID.Memory_Data::total          187                       (Unspecified)
board.cache_hierarchy.ruby_system.Directory_Controller.ID_W.Memory_Ack |       31198     50.00%     50.00% |       31200     50.00%    100.00% (Unspecified)
board.cache_hierarchy.ruby_system.Directory_Controller.ID_W.Memory_Ack::total        62398                       (Unspecified)
board.cache_hierarchy.ruby_system.Directory_Controller.M.Data |      108291     49.97%     49.97% |      108431     50.03%    100.00% (Unspecified)
board.cache_hierarchy.ruby_system.Directory_Controller.M.Data::total       216722                       (Unspecified)
board.cache_hierarchy.ruby_system.Directory_Controller.M.DMA_READ |          41     83.67%     83.67% |           8     16.33%    100.00% (Unspecified)
board.cache_hierarchy.ruby_system.Directory_Controller.M.DMA_READ::total           49                       (Unspecified)
board.cache_hierarchy.ruby_system.Directory_Controller.M.DMA_WRITE |           2    100.00%    100.00% |           0      0.00%    100.00% (Unspecified)
board.cache_hierarchy.ruby_system.Directory_Controller.M.DMA_WRITE::total            2                       (Unspecified)
board.cache_hierarchy.ruby_system.Directory_Controller.M.CleanReplacement |      143629     50.20%     50.20% |      142494     49.80%    100.00% (Unspecified)
board.cache_hierarchy.ruby_system.Directory_Controller.M.CleanReplacement::total       286123                       (Unspecified)
board.cache_hierarchy.ruby_system.Directory_Controller.IM.Memory_Data |      251963     50.10%     50.10% |      250933     49.90%    100.00% (Unspecified)
board.cache_hierarchy.ruby_system.Directory_Controller.IM.Memory_Data::total       502896                       (Unspecified)
board.cache_hierarchy.ruby_system.Directory_Controller.MI.Memory_Ack |      108291     49.97%     49.97% |      108431     50.03%    100.00% (Unspecified)
board.cache_hierarchy.ruby_system.Directory_Controller.MI.Memory_Ack::total       216722                       (Unspecified)
board.cache_hierarchy.ruby_system.Directory_Controller.M_DRD.Data |          41     83.67%     83.67% |           8     16.33%    100.00% (Unspecified)
board.cache_hierarchy.ruby_system.Directory_Controller.M_DRD.Data::total           49                       (Unspecified)
board.cache_hierarchy.ruby_system.Directory_Controller.M_DRDI.Memory_Ack |          41     83.67%     83.67% |           8     16.33%    100.00% (Unspecified)
board.cache_hierarchy.ruby_system.Directory_Controller.M_DRDI.Memory_Ack::total           49                       (Unspecified)
board.cache_hierarchy.ruby_system.Directory_Controller.M_DWR.Data |           2    100.00%    100.00% |           0      0.00%    100.00% (Unspecified)
board.cache_hierarchy.ruby_system.Directory_Controller.M_DWR.Data::total            2                       (Unspecified)
board.cache_hierarchy.ruby_system.Directory_Controller.M_DWRI.Memory_Ack |           2    100.00%    100.00% |           0      0.00%    100.00% (Unspecified)
board.cache_hierarchy.ruby_system.Directory_Controller.M_DWRI.Memory_Ack::total            2                       (Unspecified)
board.cache_hierarchy.ruby_system.DMA_Controller.ReadRequest |         236    100.00%    100.00% |           0      0.00%    100.00% (Unspecified)
board.cache_hierarchy.ruby_system.DMA_Controller.ReadRequest::total          236                       (Unspecified)
board.cache_hierarchy.ruby_system.DMA_Controller.WriteRequest |       62400    100.00%    100.00% |           0      0.00%    100.00% (Unspecified)
board.cache_hierarchy.ruby_system.DMA_Controller.WriteRequest::total        62400                       (Unspecified)
board.cache_hierarchy.ruby_system.DMA_Controller.Data |         236    100.00%    100.00% |           0      0.00%    100.00% (Unspecified)
board.cache_hierarchy.ruby_system.DMA_Controller.Data::total          236                       (Unspecified)
board.cache_hierarchy.ruby_system.DMA_Controller.Ack |       62400    100.00%    100.00% |           0      0.00%    100.00% (Unspecified)
board.cache_hierarchy.ruby_system.DMA_Controller.Ack::total        62400                       (Unspecified)
board.cache_hierarchy.ruby_system.DMA_Controller.READY.ReadRequest |         236    100.00%    100.00% |           0      0.00%    100.00% (Unspecified)
board.cache_hierarchy.ruby_system.DMA_Controller.READY.ReadRequest::total          236                       (Unspecified)
board.cache_hierarchy.ruby_system.DMA_Controller.READY.WriteRequest |       62400    100.00%    100.00% |           0      0.00%    100.00% (Unspecified)
board.cache_hierarchy.ruby_system.DMA_Controller.READY.WriteRequest::total        62400                       (Unspecified)
board.cache_hierarchy.ruby_system.DMA_Controller.BUSY_RD.Data |         236    100.00%    100.00% |           0      0.00%    100.00% (Unspecified)
board.cache_hierarchy.ruby_system.DMA_Controller.BUSY_RD.Data::total          236                       (Unspecified)
board.cache_hierarchy.ruby_system.DMA_Controller.BUSY_WR.Ack |       62400    100.00%    100.00% |           0      0.00%    100.00% (Unspecified)
board.cache_hierarchy.ruby_system.DMA_Controller.BUSY_WR.Ack::total        62400                       (Unspecified)
board.cache_hierarchy.ruby_system.L1Cache_Controller.Load    128504560      0.00%      0.00% (Unspecified)
board.cache_hierarchy.ruby_system.L1Cache_Controller.Ifetch    127436739      0.00%      0.00% (Unspecified)
board.cache_hierarchy.ruby_system.L1Cache_Controller.Store    104660277      0.00%      0.00% (Unspecified)
board.cache_hierarchy.ruby_system.L1Cache_Controller.Inv        82274      0.00%      0.00% (Unspecified)
board.cache_hierarchy.ruby_system.L1Cache_Controller.L1_Replacement      1051575      0.00%      0.00% (Unspecified)
board.cache_hierarchy.ruby_system.L1Cache_Controller.Data_Exclusive       422230      0.00%      0.00% (Unspecified)
board.cache_hierarchy.ruby_system.L1Cache_Controller.Data_all_Acks       645713      0.00%      0.00% (Unspecified)
board.cache_hierarchy.ruby_system.L1Cache_Controller.WB_Ack       648411      0.00%      0.00% (Unspecified)
board.cache_hierarchy.ruby_system.L1Cache_Controller.NP.Load       416930      0.00%      0.00% (Unspecified)
board.cache_hierarchy.ruby_system.L1Cache_Controller.NP.Ifetch       400796      0.00%      0.00% (Unspecified)
board.cache_hierarchy.ruby_system.L1Cache_Controller.NP.Store       233840      0.00%      0.00% (Unspecified)
board.cache_hierarchy.ruby_system.L1Cache_Controller.NP.Inv        58028      0.00%      0.00% (Unspecified)
board.cache_hierarchy.ruby_system.L1Cache_Controller.I.Load         5353      0.00%      0.00% (Unspecified)
board.cache_hierarchy.ruby_system.L1Cache_Controller.I.Ifetch         9142      0.00%      0.00% (Unspecified)
board.cache_hierarchy.ruby_system.L1Cache_Controller.I.Store         1882      0.00%      0.00% (Unspecified)
board.cache_hierarchy.ruby_system.L1Cache_Controller.I.L1_Replacement         7870      0.00%      0.00% (Unspecified)
board.cache_hierarchy.ruby_system.L1Cache_Controller.S.Load          123      0.00%      0.00% (Unspecified)
board.cache_hierarchy.ruby_system.L1Cache_Controller.S.Ifetch    127026800      0.00%      0.00% (Unspecified)
board.cache_hierarchy.ruby_system.L1Cache_Controller.S.Inv        14706      0.00%      0.00% (Unspecified)
board.cache_hierarchy.ruby_system.L1Cache_Controller.S.L1_Replacement       395285      0.00%      0.00% (Unspecified)
board.cache_hierarchy.ruby_system.L1Cache_Controller.E.Load     35895487      0.00%      0.00% (Unspecified)
board.cache_hierarchy.ruby_system.L1Cache_Controller.E.Store        38794      0.00%      0.00% (Unspecified)
board.cache_hierarchy.ruby_system.L1Cache_Controller.E.Inv         4304      0.00%      0.00% (Unspecified)
board.cache_hierarchy.ruby_system.L1Cache_Controller.E.L1_Replacement       379142      0.00%      0.00% (Unspecified)
board.cache_hierarchy.ruby_system.L1Cache_Controller.M.Load     92186379      0.00%      0.00% (Unspecified)
board.cache_hierarchy.ruby_system.L1Cache_Controller.M.Store    104385744      0.00%      0.00% (Unspecified)
board.cache_hierarchy.ruby_system.L1Cache_Controller.M.Inv         5235      0.00%      0.00% (Unspecified)
board.cache_hierarchy.ruby_system.L1Cache_Controller.M.L1_Replacement       269269      0.00%      0.00% (Unspecified)
board.cache_hierarchy.ruby_system.L1Cache_Controller.IS.Inv            1      0.00%      0.00% (Unspecified)
board.cache_hierarchy.ruby_system.L1Cache_Controller.IS.L1_Replacement            6      0.00%      0.00% (Unspecified)
board.cache_hierarchy.ruby_system.L1Cache_Controller.IS.Data_Exclusive       422230      0.00%      0.00% (Unspecified)
board.cache_hierarchy.ruby_system.L1Cache_Controller.IS.Data_all_Acks       409990      0.00%      0.00% (Unspecified)
board.cache_hierarchy.ruby_system.L1Cache_Controller.IM.L1_Replacement            3      0.00%      0.00% (Unspecified)
board.cache_hierarchy.ruby_system.L1Cache_Controller.IM.Data_all_Acks       235722      0.00%      0.00% (Unspecified)
board.cache_hierarchy.ruby_system.L1Cache_Controller.IS_I.Data_all_Acks            1      0.00%      0.00% (Unspecified)
board.cache_hierarchy.ruby_system.L1Cache_Controller.M_I.Load          288      0.00%      0.00% (Unspecified)
board.cache_hierarchy.ruby_system.L1Cache_Controller.M_I.Ifetch            1      0.00%      0.00% (Unspecified)
board.cache_hierarchy.ruby_system.L1Cache_Controller.M_I.Store           17      0.00%      0.00% (Unspecified)
board.cache_hierarchy.ruby_system.L1Cache_Controller.M_I.WB_Ack       648411      0.00%      0.00% (Unspecified)
board.cache_hierarchy.ruby_system.L2Cache_Controller.L1_GET_INSTR       410000      0.00%      0.00% (Unspecified)
board.cache_hierarchy.ruby_system.L2Cache_Controller.L1_GETS       422348      0.00%      0.00% (Unspecified)
board.cache_hierarchy.ruby_system.L2Cache_Controller.L1_GETX       235744      0.00%      0.00% (Unspecified)
board.cache_hierarchy.ruby_system.L2Cache_Controller.L1_PUTX       648411      0.00%      0.00% (Unspecified)
board.cache_hierarchy.ruby_system.L2Cache_Controller.L2_Replacement       213724      0.00%      0.00% (Unspecified)
board.cache_hierarchy.ruby_system.L2Cache_Controller.L2_Replacement_clean       289121      0.00%      0.00% (Unspecified)
board.cache_hierarchy.ruby_system.L2Cache_Controller.Mem_Data       502896      0.00%      0.00% (Unspecified)
board.cache_hierarchy.ruby_system.L2Cache_Controller.Mem_Ack       502896      0.00%      0.00% (Unspecified)
board.cache_hierarchy.ruby_system.L2Cache_Controller.WB_Data         5235      0.00%      0.00% (Unspecified)
board.cache_hierarchy.ruby_system.L2Cache_Controller.Ack_all        77039      0.00%      0.00% (Unspecified)
board.cache_hierarchy.ruby_system.L2Cache_Controller.Exclusive_Unblock       657952      0.00%      0.00% (Unspecified)
board.cache_hierarchy.ruby_system.L2Cache_Controller.MEM_Inv          102      0.00%      0.00% (Unspecified)
board.cache_hierarchy.ruby_system.L2Cache_Controller.NP.L1_GET_INSTR        72712      0.00%      0.00% (Unspecified)
board.cache_hierarchy.ruby_system.L2Cache_Controller.NP.L1_GETS       228806      0.00%      0.00% (Unspecified)
board.cache_hierarchy.ruby_system.L2Cache_Controller.NP.L1_GETX       201378      0.00%      0.00% (Unspecified)
board.cache_hierarchy.ruby_system.L2Cache_Controller.SS.L1_GET_INSTR       337220      0.00%      0.00% (Unspecified)
board.cache_hierarchy.ruby_system.L2Cache_Controller.SS.L1_GETS           53      0.00%      0.00% (Unspecified)
board.cache_hierarchy.ruby_system.L2Cache_Controller.SS.L2_Replacement            2      0.00%      0.00% (Unspecified)
board.cache_hierarchy.ruby_system.L2Cache_Controller.SS.L2_Replacement_clean        72732      0.00%      0.00% (Unspecified)
board.cache_hierarchy.ruby_system.L2Cache_Controller.M.L1_GET_INSTR            6      0.00%      0.00% (Unspecified)
board.cache_hierarchy.ruby_system.L2Cache_Controller.M.L1_GETS       193424      0.00%      0.00% (Unspecified)
board.cache_hierarchy.ruby_system.L2Cache_Controller.M.L1_GETX        34344      0.00%      0.00% (Unspecified)
board.cache_hierarchy.ruby_system.L2Cache_Controller.M.L2_Replacement       211438      0.00%      0.00% (Unspecified)
board.cache_hierarchy.ruby_system.L2Cache_Controller.M.L2_Replacement_clean       209176      0.00%      0.00% (Unspecified)
board.cache_hierarchy.ruby_system.L2Cache_Controller.M.MEM_Inv            9      0.00%      0.00% (Unspecified)
board.cache_hierarchy.ruby_system.L2Cache_Controller.MT.L1_PUTX       648411      0.00%      0.00% (Unspecified)
board.cache_hierarchy.ruby_system.L2Cache_Controller.MT.L2_Replacement         2284      0.00%      0.00% (Unspecified)
board.cache_hierarchy.ruby_system.L2Cache_Controller.MT.L2_Replacement_clean         7213      0.00%      0.00% (Unspecified)
board.cache_hierarchy.ruby_system.L2Cache_Controller.MT.MEM_Inv           42      0.00%      0.00% (Unspecified)
board.cache_hierarchy.ruby_system.L2Cache_Controller.M_I.L1_GET_INSTR           61      0.00%      0.00% (Unspecified)
board.cache_hierarchy.ruby_system.L2Cache_Controller.M_I.L1_GETS           65      0.00%      0.00% (Unspecified)
board.cache_hierarchy.ruby_system.L2Cache_Controller.M_I.L1_GETX           22      0.00%      0.00% (Unspecified)
board.cache_hierarchy.ruby_system.L2Cache_Controller.M_I.Mem_Ack       502896      0.00%      0.00% (Unspecified)
board.cache_hierarchy.ruby_system.L2Cache_Controller.M_I.MEM_Inv            9      0.00%      0.00% (Unspecified)
board.cache_hierarchy.ruby_system.L2Cache_Controller.MT_I.WB_Data         2236      0.00%      0.00% (Unspecified)
board.cache_hierarchy.ruby_system.L2Cache_Controller.MT_I.Ack_all           90      0.00%      0.00% (Unspecified)
board.cache_hierarchy.ruby_system.L2Cache_Controller.MT_I.MEM_Inv           42      0.00%      0.00% (Unspecified)
board.cache_hierarchy.ruby_system.L2Cache_Controller.MCT_I.WB_Data         2999      0.00%      0.00% (Unspecified)
board.cache_hierarchy.ruby_system.L2Cache_Controller.MCT_I.Ack_all         4214      0.00%      0.00% (Unspecified)
board.cache_hierarchy.ruby_system.L2Cache_Controller.I_I.L1_GET_INSTR            1      0.00%      0.00% (Unspecified)
board.cache_hierarchy.ruby_system.L2Cache_Controller.I_I.Ack_all        72733      0.00%      0.00% (Unspecified)
board.cache_hierarchy.ruby_system.L2Cache_Controller.S_I.Ack_all            2      0.00%      0.00% (Unspecified)
board.cache_hierarchy.ruby_system.L2Cache_Controller.ISS.Mem_Data       228806      0.00%      0.00% (Unspecified)
board.cache_hierarchy.ruby_system.L2Cache_Controller.IS.Mem_Data        72712      0.00%      0.00% (Unspecified)
board.cache_hierarchy.ruby_system.L2Cache_Controller.IM.Mem_Data       201378      0.00%      0.00% (Unspecified)
board.cache_hierarchy.ruby_system.L2Cache_Controller.MT_MB.Exclusive_Unblock       657952      0.00%      0.00% (Unspecified)
board.cache_hierarchy.ruby_system.RequestType.LD.latency_hist_seqr::bucket_size          256                       (Unspecified)
board.cache_hierarchy.ruby_system.RequestType.LD.latency_hist_seqr::max_bucket         2559                       (Unspecified)
board.cache_hierarchy.ruby_system.RequestType.LD.latency_hist_seqr::samples    128504272                       (Unspecified)
board.cache_hierarchy.ruby_system.RequestType.LD.latency_hist_seqr::mean     1.333766                       (Unspecified)
board.cache_hierarchy.ruby_system.RequestType.LD.latency_hist_seqr::gmean     1.014320                       (Unspecified)
board.cache_hierarchy.ruby_system.RequestType.LD.latency_hist_seqr::stdev     8.936645                       (Unspecified)
board.cache_hierarchy.ruby_system.RequestType.LD.latency_hist_seqr |   128494369     99.99%     99.99% |        6134      0.00%    100.00% |         913      0.00%    100.00% |         734      0.00%    100.00% |        2054      0.00%    100.00% |          37      0.00%    100.00% |          31      0.00%    100.00% |           0      0.00%    100.00% |           0      0.00%    100.00% |           0      0.00%    100.00% (Unspecified)
board.cache_hierarchy.ruby_system.RequestType.LD.latency_hist_seqr::total    128504272                       (Unspecified)
board.cache_hierarchy.ruby_system.RequestType.LD.hit_latency_hist_seqr::bucket_size            1                       (Unspecified)
board.cache_hierarchy.ruby_system.RequestType.LD.hit_latency_hist_seqr::max_bucket            9                       (Unspecified)
board.cache_hierarchy.ruby_system.RequestType.LD.hit_latency_hist_seqr::samples    128081989                       (Unspecified)
board.cache_hierarchy.ruby_system.RequestType.LD.hit_latency_hist_seqr::mean     1.001617                       (Unspecified)
board.cache_hierarchy.ruby_system.RequestType.LD.hit_latency_hist_seqr::gmean     1.001122                       (Unspecified)
board.cache_hierarchy.ruby_system.RequestType.LD.hit_latency_hist_seqr::stdev     0.040181                       (Unspecified)
board.cache_hierarchy.ruby_system.RequestType.LD.hit_latency_hist_seqr |           0      0.00%      0.00% |   127874871     99.84%     99.84% |      207117      0.16%    100.00% |           1      0.00%    100.00% |           0      0.00%    100.00% |           0      0.00%    100.00% |           0      0.00%    100.00% |           0      0.00%    100.00% |           0      0.00%    100.00% |           0      0.00%    100.00% (Unspecified)
board.cache_hierarchy.ruby_system.RequestType.LD.hit_latency_hist_seqr::total    128081989                       (Unspecified)
board.cache_hierarchy.ruby_system.RequestType.LD.miss_latency_hist_seqr::bucket_size          256                       (Unspecified)
board.cache_hierarchy.ruby_system.RequestType.LD.miss_latency_hist_seqr::max_bucket         2559                       (Unspecified)
board.cache_hierarchy.ruby_system.RequestType.LD.miss_latency_hist_seqr::samples       422283                       (Unspecified)
board.cache_hierarchy.ruby_system.RequestType.LD.miss_latency_hist_seqr::mean   102.077218                       (Unspecified)
board.cache_hierarchy.ruby_system.RequestType.LD.miss_latency_hist_seqr::gmean    53.878188                       (Unspecified)
board.cache_hierarchy.ruby_system.RequestType.LD.miss_latency_hist_seqr::stdev   118.827653                       (Unspecified)
board.cache_hierarchy.ruby_system.RequestType.LD.miss_latency_hist_seqr |      412380     97.65%     97.65% |        6134      1.45%     99.11% |         913      0.22%     99.32% |         734      0.17%     99.50% |        2054      0.49%     99.98% |          37      0.01%     99.99% |          31      0.01%    100.00% |           0      0.00%    100.00% |           0      0.00%    100.00% |           0      0.00%    100.00% (Unspecified)
board.cache_hierarchy.ruby_system.RequestType.LD.miss_latency_hist_seqr::total       422283                       (Unspecified)
board.cache_hierarchy.ruby_system.RequestType.ST.latency_hist_seqr::bucket_size          256                       (Unspecified)
board.cache_hierarchy.ruby_system.RequestType.ST.latency_hist_seqr::max_bucket         2559                       (Unspecified)
board.cache_hierarchy.ruby_system.RequestType.ST.latency_hist_seqr::samples     98641349                       (Unspecified)
board.cache_hierarchy.ruby_system.RequestType.ST.latency_hist_seqr::mean     1.363351                       (Unspecified)
board.cache_hierarchy.ruby_system.RequestType.ST.latency_hist_seqr::gmean     1.029242                       (Unspecified)
board.cache_hierarchy.ruby_system.RequestType.ST.latency_hist_seqr::stdev     8.890758                       (Unspecified)
board.cache_hierarchy.ruby_system.RequestType.ST.latency_hist_seqr |    98631651     99.99%     99.99% |        7607      0.01%    100.00% |         301      0.00%    100.00% |         212      0.00%    100.00% |        1529      0.00%    100.00% |          27      0.00%    100.00% |          22      0.00%    100.00% |           0      0.00%    100.00% |           0      0.00%    100.00% |           0      0.00%    100.00% (Unspecified)
board.cache_hierarchy.ruby_system.RequestType.ST.latency_hist_seqr::total     98641349                       (Unspecified)
board.cache_hierarchy.ruby_system.RequestType.ST.hit_latency_hist_seqr::bucket_size          128                       (Unspecified)
board.cache_hierarchy.ruby_system.RequestType.ST.hit_latency_hist_seqr::max_bucket         1279                       (Unspecified)
board.cache_hierarchy.ruby_system.RequestType.ST.hit_latency_hist_seqr::samples     98419433                       (Unspecified)
board.cache_hierarchy.ruby_system.RequestType.ST.hit_latency_hist_seqr::mean     1.026738                       (Unspecified)
board.cache_hierarchy.ruby_system.RequestType.ST.hit_latency_hist_seqr::gmean     1.018253                       (Unspecified)
board.cache_hierarchy.ruby_system.RequestType.ST.hit_latency_hist_seqr::stdev     0.469610                       (Unspecified)
board.cache_hierarchy.ruby_system.RequestType.ST.hit_latency_hist_seqr |    98419305    100.00%    100.00% |         103      0.00%    100.00% |          12      0.00%    100.00% |           2      0.00%    100.00% |           1      0.00%    100.00% |           0      0.00%    100.00% |           2      0.00%    100.00% |           1      0.00%    100.00% |           2      0.00%    100.00% |           5      0.00%    100.00% (Unspecified)
board.cache_hierarchy.ruby_system.RequestType.ST.hit_latency_hist_seqr::total     98419433                       (Unspecified)
board.cache_hierarchy.ruby_system.RequestType.ST.miss_latency_hist_seqr::bucket_size          256                       (Unspecified)
board.cache_hierarchy.ruby_system.RequestType.ST.miss_latency_hist_seqr::max_bucket         2559                       (Unspecified)
board.cache_hierarchy.ruby_system.RequestType.ST.miss_latency_hist_seqr::samples       221916                       (Unspecified)
board.cache_hierarchy.ruby_system.RequestType.ST.miss_latency_hist_seqr::mean   150.650814                       (Unspecified)
board.cache_hierarchy.ruby_system.RequestType.ST.miss_latency_hist_seqr::gmean   120.225727                       (Unspecified)
board.cache_hierarchy.ruby_system.RequestType.ST.miss_latency_hist_seqr::stdev   112.698268                       (Unspecified)
board.cache_hierarchy.ruby_system.RequestType.ST.miss_latency_hist_seqr |      212243     95.64%     95.64% |        7593      3.42%     99.06% |         300      0.14%     99.20% |         209      0.09%     99.29% |        1522      0.69%     99.98% |          27      0.01%     99.99% |          22      0.01%    100.00% |           0      0.00%    100.00% |           0      0.00%    100.00% |           0      0.00%    100.00% (Unspecified)
board.cache_hierarchy.ruby_system.RequestType.ST.miss_latency_hist_seqr::total       221916                       (Unspecified)
board.cache_hierarchy.ruby_system.RequestType.IFETCH.latency_hist_seqr::bucket_size          256                       (Unspecified)
board.cache_hierarchy.ruby_system.RequestType.IFETCH.latency_hist_seqr::max_bucket         2559                       (Unspecified)
board.cache_hierarchy.ruby_system.RequestType.IFETCH.latency_hist_seqr::samples    127436738                       (Unspecified)
board.cache_hierarchy.ruby_system.RequestType.IFETCH.latency_hist_seqr::mean     1.135985                       (Unspecified)
board.cache_hierarchy.ruby_system.RequestType.IFETCH.latency_hist_seqr::gmean     1.009800                       (Unspecified)
board.cache_hierarchy.ruby_system.RequestType.IFETCH.latency_hist_seqr::stdev     5.129394                       (Unspecified)
board.cache_hierarchy.ruby_system.RequestType.IFETCH.latency_hist_seqr |   127433383    100.00%    100.00% |        2460      0.00%    100.00% |         154      0.00%    100.00% |         137      0.00%    100.00% |         581      0.00%    100.00% |          15      0.00%    100.00% |           8      0.00%    100.00% |           0      0.00%    100.00% |           0      0.00%    100.00% |           0      0.00%    100.00% (Unspecified)
board.cache_hierarchy.ruby_system.RequestType.IFETCH.latency_hist_seqr::total    127436738                       (Unspecified)
board.cache_hierarchy.ruby_system.RequestType.IFETCH.hit_latency_hist_seqr::bucket_size            1                       (Unspecified)
board.cache_hierarchy.ruby_system.RequestType.IFETCH.hit_latency_hist_seqr::max_bucket            9                       (Unspecified)
board.cache_hierarchy.ruby_system.RequestType.IFETCH.hit_latency_hist_seqr::samples    127026800                       (Unspecified)
board.cache_hierarchy.ruby_system.RequestType.IFETCH.hit_latency_hist_seqr::mean     1.000000                       (Unspecified)
board.cache_hierarchy.ruby_system.RequestType.IFETCH.hit_latency_hist_seqr::gmean     1.000000                       (Unspecified)
board.cache_hierarchy.ruby_system.RequestType.IFETCH.hit_latency_hist_seqr::stdev     0.000177                       (Unspecified)
board.cache_hierarchy.ruby_system.RequestType.IFETCH.hit_latency_hist_seqr |           0      0.00%      0.00% |   127026796    100.00%    100.00% |           4      0.00%    100.00% |           0      0.00%    100.00% |           0      0.00%    100.00% |           0      0.00%    100.00% |           0      0.00%    100.00% |           0      0.00%    100.00% |           0      0.00%    100.00% |           0      0.00%    100.00% (Unspecified)
board.cache_hierarchy.ruby_system.RequestType.IFETCH.hit_latency_hist_seqr::total    127026800                       (Unspecified)
board.cache_hierarchy.ruby_system.RequestType.IFETCH.miss_latency_hist_seqr::bucket_size          256                       (Unspecified)
board.cache_hierarchy.ruby_system.RequestType.IFETCH.miss_latency_hist_seqr::max_bucket         2559                       (Unspecified)
board.cache_hierarchy.ruby_system.RequestType.IFETCH.miss_latency_hist_seqr::samples       409938                       (Unspecified)
board.cache_hierarchy.ruby_system.RequestType.IFETCH.miss_latency_hist_seqr::mean    43.273497                       (Unspecified)
board.cache_hierarchy.ruby_system.RequestType.IFETCH.miss_latency_hist_seqr::gmean    20.731722                       (Unspecified)
board.cache_hierarchy.ruby_system.RequestType.IFETCH.miss_latency_hist_seqr::stdev    79.986701                       (Unspecified)
board.cache_hierarchy.ruby_system.RequestType.IFETCH.miss_latency_hist_seqr |      406583     99.18%     99.18% |        2460      0.60%     99.78% |         154      0.04%     99.82% |         137      0.03%     99.85% |         581      0.14%     99.99% |          15      0.00%    100.00% |           8      0.00%    100.00% |           0      0.00%    100.00% |           0      0.00%    100.00% |           0      0.00%    100.00% (Unspecified)
board.cache_hierarchy.ruby_system.RequestType.IFETCH.miss_latency_hist_seqr::total       409938                       (Unspecified)
board.cache_hierarchy.ruby_system.RequestType.RMW_Read.latency_hist_seqr::bucket_size          256                       (Unspecified)
board.cache_hierarchy.ruby_system.RequestType.RMW_Read.latency_hist_seqr::max_bucket         2559                       (Unspecified)
board.cache_hierarchy.ruby_system.RequestType.RMW_Read.latency_hist_seqr::samples      6010729                       (Unspecified)
board.cache_hierarchy.ruby_system.RequestType.RMW_Read.latency_hist_seqr::mean     1.294627                       (Unspecified)
board.cache_hierarchy.ruby_system.RequestType.RMW_Read.latency_hist_seqr::gmean     1.060936                       (Unspecified)
board.cache_hierarchy.ruby_system.RequestType.RMW_Read.latency_hist_seqr::stdev     7.130354                       (Unspecified)
board.cache_hierarchy.ruby_system.RequestType.RMW_Read.latency_hist_seqr |     6010445    100.00%    100.00% |         198      0.00%    100.00% |          14      0.00%    100.00% |          14      0.00%    100.00% |          51      0.00%    100.00% |           5      0.00%    100.00% |           2      0.00%    100.00% |           0      0.00%    100.00% |           0      0.00%    100.00% |           0      0.00%    100.00% (Unspecified)
board.cache_hierarchy.ruby_system.RequestType.RMW_Read.latency_hist_seqr::total      6010729                       (Unspecified)
board.cache_hierarchy.ruby_system.RequestType.RMW_Read.hit_latency_hist_seqr::bucket_size          256                       (Unspecified)
board.cache_hierarchy.ruby_system.RequestType.RMW_Read.hit_latency_hist_seqr::max_bucket         2559                       (Unspecified)
board.cache_hierarchy.ruby_system.RequestType.RMW_Read.hit_latency_hist_seqr::samples      5996931                       (Unspecified)
board.cache_hierarchy.ruby_system.RequestType.RMW_Read.hit_latency_hist_seqr::mean     1.145007                       (Unspecified)
board.cache_hierarchy.ruby_system.RequestType.RMW_Read.hit_latency_hist_seqr::gmean     1.052695                       (Unspecified)
board.cache_hierarchy.ruby_system.RequestType.RMW_Read.hit_latency_hist_seqr::stdev     4.205384                       (Unspecified)
board.cache_hierarchy.ruby_system.RequestType.RMW_Read.hit_latency_hist_seqr |     5996834    100.00%    100.00% |          60      0.00%    100.00% |           7      0.00%    100.00% |          10      0.00%    100.00% |          19      0.00%    100.00% |           1      0.00%    100.00% |           0      0.00%    100.00% |           0      0.00%    100.00% |           0      0.00%    100.00% |           0      0.00%    100.00% (Unspecified)
board.cache_hierarchy.ruby_system.RequestType.RMW_Read.hit_latency_hist_seqr::total      5996931                       (Unspecified)
board.cache_hierarchy.ruby_system.RequestType.RMW_Read.miss_latency_hist_seqr::bucket_size          256                       (Unspecified)
board.cache_hierarchy.ruby_system.RequestType.RMW_Read.miss_latency_hist_seqr::max_bucket         2559                       (Unspecified)
board.cache_hierarchy.ruby_system.RequestType.RMW_Read.miss_latency_hist_seqr::samples        13798                       (Unspecified)
board.cache_hierarchy.ruby_system.RequestType.RMW_Read.miss_latency_hist_seqr::mean    66.322800                       (Unspecified)
board.cache_hierarchy.ruby_system.RequestType.RMW_Read.miss_latency_hist_seqr::gmean    31.443380                       (Unspecified)
board.cache_hierarchy.ruby_system.RequestType.RMW_Read.miss_latency_hist_seqr::stdev   101.113093                       (Unspecified)
board.cache_hierarchy.ruby_system.RequestType.RMW_Read.miss_latency_hist_seqr |       13611     98.64%     98.64% |         138      1.00%     99.64% |           7      0.05%     99.70% |           4      0.03%     99.72% |          32      0.23%     99.96% |           4      0.03%     99.99% |           2      0.01%    100.00% |           0      0.00%    100.00% |           0      0.00%    100.00% |           0      0.00%    100.00% (Unspecified)
board.cache_hierarchy.ruby_system.RequestType.RMW_Read.miss_latency_hist_seqr::total        13798                       (Unspecified)
board.cache_hierarchy.ruby_system.RequestType.Locked_RMW_Read.latency_hist_seqr::bucket_size           16                       (Unspecified)
board.cache_hierarchy.ruby_system.RequestType.Locked_RMW_Read.latency_hist_seqr::max_bucket          159                       (Unspecified)
board.cache_hierarchy.ruby_system.RequestType.Locked_RMW_Read.latency_hist_seqr::samples         4091                       (Unspecified)
board.cache_hierarchy.ruby_system.RequestType.Locked_RMW_Read.latency_hist_seqr::mean     1.163285                       (Unspecified)
board.cache_hierarchy.ruby_system.RequestType.Locked_RMW_Read.latency_hist_seqr::gmean     1.007775                       (Unspecified)
board.cache_hierarchy.ruby_system.RequestType.Locked_RMW_Read.latency_hist_seqr::stdev     4.578437                       (Unspecified)
board.cache_hierarchy.ruby_system.RequestType.Locked_RMW_Read.latency_hist_seqr |        4086     99.88%     99.88% |           0      0.00%     99.88% |           0      0.00%     99.88% |           1      0.02%     99.90% |           0      0.00%     99.90% |           0      0.00%     99.90% |           0      0.00%     99.90% |           0      0.00%     99.90% |           2      0.05%     99.95% |           2      0.05%    100.00% (Unspecified)
board.cache_hierarchy.ruby_system.RequestType.Locked_RMW_Read.latency_hist_seqr::total         4091                       (Unspecified)
board.cache_hierarchy.ruby_system.RequestType.Locked_RMW_Read.hit_latency_hist_seqr::bucket_size            1                       (Unspecified)
board.cache_hierarchy.ruby_system.RequestType.Locked_RMW_Read.hit_latency_hist_seqr::max_bucket            9                       (Unspecified)
board.cache_hierarchy.ruby_system.RequestType.Locked_RMW_Read.hit_latency_hist_seqr::samples         4083                       (Unspecified)
board.cache_hierarchy.ruby_system.RequestType.Locked_RMW_Read.hit_latency_hist_seqr::mean            1                       (Unspecified)
board.cache_hierarchy.ruby_system.RequestType.Locked_RMW_Read.hit_latency_hist_seqr::gmean            1                       (Unspecified)
board.cache_hierarchy.ruby_system.RequestType.Locked_RMW_Read.hit_latency_hist_seqr |           0      0.00%      0.00% |        4083    100.00%    100.00% |           0      0.00%    100.00% |           0      0.00%    100.00% |           0      0.00%    100.00% |           0      0.00%    100.00% |           0      0.00%    100.00% |           0      0.00%    100.00% |           0      0.00%    100.00% |           0      0.00%    100.00% (Unspecified)
board.cache_hierarchy.ruby_system.RequestType.Locked_RMW_Read.hit_latency_hist_seqr::total         4083                       (Unspecified)
board.cache_hierarchy.ruby_system.RequestType.Locked_RMW_Read.miss_latency_hist_seqr::bucket_size           16                       (Unspecified)
board.cache_hierarchy.ruby_system.RequestType.Locked_RMW_Read.miss_latency_hist_seqr::max_bucket          159                       (Unspecified)
board.cache_hierarchy.ruby_system.RequestType.Locked_RMW_Read.miss_latency_hist_seqr::samples            8                       (Unspecified)
board.cache_hierarchy.ruby_system.RequestType.Locked_RMW_Read.miss_latency_hist_seqr::mean    84.500000                       (Unspecified)
board.cache_hierarchy.ruby_system.RequestType.Locked_RMW_Read.miss_latency_hist_seqr::gmean    52.487427                       (Unspecified)
board.cache_hierarchy.ruby_system.RequestType.Locked_RMW_Read.miss_latency_hist_seqr::stdev    65.537339                       (Unspecified)
board.cache_hierarchy.ruby_system.RequestType.Locked_RMW_Read.miss_latency_hist_seqr |           3     37.50%     37.50% |           0      0.00%     37.50% |           0      0.00%     37.50% |           1     12.50%     50.00% |           0      0.00%     50.00% |           0      0.00%     50.00% |           0      0.00%     50.00% |           0      0.00%     50.00% |           2     25.00%     75.00% |           2     25.00%    100.00% (Unspecified)
board.cache_hierarchy.ruby_system.RequestType.Locked_RMW_Read.miss_latency_hist_seqr::total            8                       (Unspecified)
board.cache_hierarchy.ruby_system.RequestType.Locked_RMW_Write.latency_hist_seqr::bucket_size            1                       (Unspecified)
board.cache_hierarchy.ruby_system.RequestType.Locked_RMW_Write.latency_hist_seqr::max_bucket            9                       (Unspecified)
board.cache_hierarchy.ruby_system.RequestType.Locked_RMW_Write.latency_hist_seqr::samples         4091                       (Unspecified)
board.cache_hierarchy.ruby_system.RequestType.Locked_RMW_Write.latency_hist_seqr::mean            1                       (Unspecified)
board.cache_hierarchy.ruby_system.RequestType.Locked_RMW_Write.latency_hist_seqr::gmean            1                       (Unspecified)
board.cache_hierarchy.ruby_system.RequestType.Locked_RMW_Write.latency_hist_seqr |           0      0.00%      0.00% |        4091    100.00%    100.00% |           0      0.00%    100.00% |           0      0.00%    100.00% |           0      0.00%    100.00% |           0      0.00%    100.00% |           0      0.00%    100.00% |           0      0.00%    100.00% |           0      0.00%    100.00% |           0      0.00%    100.00% (Unspecified)
board.cache_hierarchy.ruby_system.RequestType.Locked_RMW_Write.latency_hist_seqr::total         4091                       (Unspecified)
board.cache_hierarchy.ruby_system.RequestType.Locked_RMW_Write.hit_latency_hist_seqr::bucket_size            1                       (Unspecified)
board.cache_hierarchy.ruby_system.RequestType.Locked_RMW_Write.hit_latency_hist_seqr::max_bucket            9                       (Unspecified)
board.cache_hierarchy.ruby_system.RequestType.Locked_RMW_Write.hit_latency_hist_seqr::samples         4091                       (Unspecified)
board.cache_hierarchy.ruby_system.RequestType.Locked_RMW_Write.hit_latency_hist_seqr::mean            1                       (Unspecified)
board.cache_hierarchy.ruby_system.RequestType.Locked_RMW_Write.hit_latency_hist_seqr::gmean            1                       (Unspecified)
board.cache_hierarchy.ruby_system.RequestType.Locked_RMW_Write.hit_latency_hist_seqr |           0      0.00%      0.00% |        4091    100.00%    100.00% |           0      0.00%    100.00% |           0      0.00%    100.00% |           0      0.00%    100.00% |           0      0.00%    100.00% |           0      0.00%    100.00% |           0      0.00%    100.00% |           0      0.00%    100.00% |           0      0.00%    100.00% (Unspecified)
board.cache_hierarchy.ruby_system.RequestType.Locked_RMW_Write.hit_latency_hist_seqr::total         4091                       (Unspecified)
board.cache_hierarchy.ruby_system.directory_controllers0.power_state.pwrStateResidencyTicks::UNDEFINED 6528725526546                       # Cumulative time (in ticks) in various power states (Tick)
board.cache_hierarchy.ruby_system.directory_controllers0.requestToDir.m_msg_count       283360                       # Number of messages passed the buffer (Count)
board.cache_hierarchy.ruby_system.directory_controllers0.requestToDir.m_buf_msgs     0.000608                       # Average number of messages in buffer ((Count/Tick))
board.cache_hierarchy.ruby_system.directory_controllers0.requestToMemory.m_msg_count       391651                       # Number of messages passed the buffer (Count)
board.cache_hierarchy.ruby_system.directory_controllers0.requestToMemory.m_buf_msgs     0.006188                       # Average number of messages in buffer ((Count/Tick))
board.cache_hierarchy.ruby_system.directory_controllers0.requestToMemory.m_stall_time    830572637                       # Total number of ticks messages were stalled in this buffer (Tick)
board.cache_hierarchy.ruby_system.directory_controllers0.requestToMemory.m_avg_stall_time  2120.695816                       # Average stall ticks per message ((Tick/Count))
board.cache_hierarchy.ruby_system.directory_controllers0.responseFromDir.m_msg_count       535366                       # Number of messages passed the buffer (Count)
board.cache_hierarchy.ruby_system.directory_controllers0.responseFromDir.m_buf_msgs     0.001148                       # Average number of messages in buffer ((Count/Tick))
board.cache_hierarchy.ruby_system.directory_controllers0.responseFromMemory.m_msg_count       391651                       # Number of messages passed the buffer (Count)
board.cache_hierarchy.ruby_system.directory_controllers0.responseFromMemory.m_buf_msgs     0.001399                       # Average number of messages in buffer ((Count/Tick))
board.cache_hierarchy.ruby_system.directory_controllers0.responseToDir.m_msg_count       251963                       # Number of messages passed the buffer (Count)
board.cache_hierarchy.ruby_system.directory_controllers0.responseToDir.m_buf_msgs     0.000540                       # Average number of messages in buffer ((Count/Tick))
board.cache_hierarchy.ruby_system.directory_controllers1.power_state.pwrStateResidencyTicks::UNDEFINED 6528725526546                       # Cumulative time (in ticks) in various power states (Tick)
board.cache_hierarchy.ruby_system.directory_controllers1.requestToDir.m_msg_count       282172                       # Number of messages passed the buffer (Count)
board.cache_hierarchy.ruby_system.directory_controllers1.requestToDir.m_buf_msgs     0.000605                       # Average number of messages in buffer ((Count/Tick))
board.cache_hierarchy.ruby_system.directory_controllers1.requestToMemory.m_msg_count       390603                       # Number of messages passed the buffer (Count)
board.cache_hierarchy.ruby_system.directory_controllers1.requestToMemory.m_buf_msgs     0.005406                       # Average number of messages in buffer ((Count/Tick))
board.cache_hierarchy.ruby_system.directory_controllers1.requestToMemory.m_stall_time    709386697                       # Total number of ticks messages were stalled in this buffer (Tick)
board.cache_hierarchy.ruby_system.directory_controllers1.requestToMemory.m_avg_stall_time  1816.132229                       # Average stall ticks per message ((Tick/Count))
board.cache_hierarchy.ruby_system.directory_controllers1.responseFromDir.m_msg_count       533113                       # Number of messages passed the buffer (Count)
board.cache_hierarchy.ruby_system.directory_controllers1.responseFromDir.m_buf_msgs     0.001143                       # Average number of messages in buffer ((Count/Tick))
board.cache_hierarchy.ruby_system.directory_controllers1.responseFromMemory.m_msg_count       390603                       # Number of messages passed the buffer (Count)
board.cache_hierarchy.ruby_system.directory_controllers1.responseFromMemory.m_buf_msgs     0.001397                       # Average number of messages in buffer ((Count/Tick))
board.cache_hierarchy.ruby_system.directory_controllers1.responseToDir.m_msg_count       250933                       # Number of messages passed the buffer (Count)
board.cache_hierarchy.ruby_system.directory_controllers1.responseToDir.m_buf_msgs     0.000538                       # Average number of messages in buffer ((Count/Tick))
board.cache_hierarchy.ruby_system.dma_controllers0.dma_sequencer.power_state.pwrStateResidencyTicks::UNDEFINED 6528725526546                       # Cumulative time (in ticks) in various power states (Tick)
board.cache_hierarchy.ruby_system.dma_controllers0.mandatoryQueue.m_msg_count        62636                       # Number of messages passed the buffer (Count)
board.cache_hierarchy.ruby_system.dma_controllers0.mandatoryQueue.m_buf_msgs     0.000137                       # Average number of messages in buffer ((Count/Tick))
board.cache_hierarchy.ruby_system.dma_controllers0.power_state.pwrStateResidencyTicks::UNDEFINED 6528725526546                       # Cumulative time (in ticks) in various power states (Tick)
board.cache_hierarchy.ruby_system.dma_controllers0.requestToDir.m_msg_count        62636                       # Number of messages passed the buffer (Count)
board.cache_hierarchy.ruby_system.dma_controllers0.requestToDir.m_buf_msgs     0.000806                       # Average number of messages in buffer ((Count/Tick))
board.cache_hierarchy.ruby_system.dma_controllers0.responseFromDir.m_msg_count        62636                       # Number of messages passed the buffer (Count)
board.cache_hierarchy.ruby_system.dma_controllers0.responseFromDir.m_buf_msgs     0.000134                       # Average number of messages in buffer ((Count/Tick))
board.cache_hierarchy.ruby_system.dma_controllers1.dma_sequencer.power_state.pwrStateResidencyTicks::UNDEFINED 6528725526546                       # Cumulative time (in ticks) in various power states (Tick)
board.cache_hierarchy.ruby_system.dma_controllers1.power_state.pwrStateResidencyTicks::UNDEFINED 6528725526546                       # Cumulative time (in ticks) in various power states (Tick)
board.cache_hierarchy.ruby_system.l1_controllers.fullyBusyCycles      3088809                       # cycles for which number of transistions == max transitions (Unspecified)
board.cache_hierarchy.ruby_system.l1_controllers.delayHistogram::samples      1798628                       # delay_histogram (Unspecified)
board.cache_hierarchy.ruby_system.l1_controllers.delayHistogram::mean     0.331221                       # delay_histogram (Unspecified)
board.cache_hierarchy.ruby_system.l1_controllers.delayHistogram::stdev     1.625442                       # delay_histogram (Unspecified)
board.cache_hierarchy.ruby_system.l1_controllers.delayHistogram::0-7      1761453     97.93%     97.93% # delay_histogram (Unspecified)
board.cache_hierarchy.ruby_system.l1_controllers.delayHistogram::8-15        34064      1.89%     99.83% # delay_histogram (Unspecified)
board.cache_hierarchy.ruby_system.l1_controllers.delayHistogram::16-23         2596      0.14%     99.97% # delay_histogram (Unspecified)
board.cache_hierarchy.ruby_system.l1_controllers.delayHistogram::24-31          411      0.02%     99.99% # delay_histogram (Unspecified)
board.cache_hierarchy.ruby_system.l1_controllers.delayHistogram::32-39           84      0.00%    100.00% # delay_histogram (Unspecified)
board.cache_hierarchy.ruby_system.l1_controllers.delayHistogram::40-47           19      0.00%    100.00% # delay_histogram (Unspecified)
board.cache_hierarchy.ruby_system.l1_controllers.delayHistogram::48-55            1      0.00%    100.00% # delay_histogram (Unspecified)
board.cache_hierarchy.ruby_system.l1_controllers.delayHistogram::total      1798628                       # delay_histogram (Unspecified)
board.cache_hierarchy.ruby_system.l1_controllers.L1Dcache.m_demand_hits    232506527                       # Number of cache demand hits (Unspecified)
board.cache_hierarchy.ruby_system.l1_controllers.L1Dcache.m_demand_misses       658005                       # Number of cache demand misses (Unspecified)
board.cache_hierarchy.ruby_system.l1_controllers.L1Dcache.m_demand_accesses    233164532                       # Number of cache demand accesses (Unspecified)
board.cache_hierarchy.ruby_system.l1_controllers.L1Icache.m_demand_hits    127026800                       # Number of cache demand hits (Unspecified)
board.cache_hierarchy.ruby_system.l1_controllers.L1Icache.m_demand_misses       409938                       # Number of cache demand misses (Unspecified)
board.cache_hierarchy.ruby_system.l1_controllers.L1Icache.m_demand_accesses    127436738                       # Number of cache demand accesses (Unspecified)
board.cache_hierarchy.ruby_system.l1_controllers.mandatoryQueue.m_msg_count    360601270                       # Number of messages passed the buffer (Count)
board.cache_hierarchy.ruby_system.l1_controllers.mandatoryQueue.m_buf_msgs     0.775596                       # Average number of messages in buffer ((Count/Tick))
board.cache_hierarchy.ruby_system.l1_controllers.mandatoryQueue.m_stall_time     78103152                       # Total number of ticks messages were stalled in this buffer (Tick)
board.cache_hierarchy.ruby_system.l1_controllers.mandatoryQueue.m_stall_count          315                       # Number of times messages were stalled (Count)
board.cache_hierarchy.ruby_system.l1_controllers.mandatoryQueue.m_avg_stall_time     0.216591                       # Average stall ticks per message ((Tick/Count))
board.cache_hierarchy.ruby_system.l1_controllers.power_state.pwrStateResidencyTicks::UNDEFINED 6528725526546                       # Cumulative time (in ticks) in various power states (Tick)
board.cache_hierarchy.ruby_system.l1_controllers.prefetcher.RubyPrefetcher.numMissObserved            0                       # Number of misses observed (Unspecified)
board.cache_hierarchy.ruby_system.l1_controllers.prefetcher.RubyPrefetcher.numAllocatedStreams            0                       # Number of streams allocated for prefetching (Unspecified)
board.cache_hierarchy.ruby_system.l1_controllers.prefetcher.RubyPrefetcher.numPrefetchRequested            0                       # Number of prefetch requests made (Unspecified)
board.cache_hierarchy.ruby_system.l1_controllers.prefetcher.RubyPrefetcher.numHits            0                       # Number of prefetched blocks accessed (for the first time) (Unspecified)
board.cache_hierarchy.ruby_system.l1_controllers.prefetcher.RubyPrefetcher.numPartialHits            0                       # Number of misses observed for a block being prefetched (Unspecified)
board.cache_hierarchy.ruby_system.l1_controllers.prefetcher.RubyPrefetcher.numPagesCrossed            0                       # Number of prefetches across pages (Unspecified)
board.cache_hierarchy.ruby_system.l1_controllers.prefetcher.RubyPrefetcher.numMissedPrefetchedBlocks            0                       # Number of misses for blocks that were prefetched, yet missed (Unspecified)
board.cache_hierarchy.ruby_system.l1_controllers.requestFromL1Cache.m_msg_count      1716354                       # Number of messages passed the buffer (Count)
board.cache_hierarchy.ruby_system.l1_controllers.requestFromL1Cache.m_buf_msgs     0.007361                       # Average number of messages in buffer ((Count/Tick))
board.cache_hierarchy.ruby_system.l1_controllers.requestToL1Cache.m_msg_count        82274                       # Number of messages passed the buffer (Count)
board.cache_hierarchy.ruby_system.l1_controllers.requestToL1Cache.m_buf_msgs     0.000176                       # Average number of messages in buffer ((Count/Tick))
board.cache_hierarchy.ruby_system.l1_controllers.responseFromL1Cache.m_msg_count        82274                       # Number of messages passed the buffer (Count)
board.cache_hierarchy.ruby_system.l1_controllers.responseFromL1Cache.m_buf_msgs     0.000353                       # Average number of messages in buffer ((Count/Tick))
board.cache_hierarchy.ruby_system.l1_controllers.responseToL1Cache.m_msg_count      1716354                       # Number of messages passed the buffer (Count)
board.cache_hierarchy.ruby_system.l1_controllers.responseToL1Cache.m_buf_msgs     0.003680                       # Average number of messages in buffer ((Count/Tick))
board.cache_hierarchy.ruby_system.l1_controllers.sequencer.power_state.pwrStateResidencyTicks::UNDEFINED 6528725526546                       # Cumulative time (in ticks) in various power states (Tick)
board.cache_hierarchy.ruby_system.l1_controllers.unblockFromL1Cache.m_msg_count       657952                       # Number of messages passed the buffer (Count)
board.cache_hierarchy.ruby_system.l1_controllers.unblockFromL1Cache.m_buf_msgs     0.001411                       # Average number of messages in buffer ((Count/Tick))
board.cache_hierarchy.ruby_system.l2_controllers.fullyBusyCycles          154                       # cycles for which number of transistions == max transitions (Unspecified)
board.cache_hierarchy.ruby_system.l2_controllers.delayHistogram::samples      3462423                       # delay_histogram (Unspecified)
board.cache_hierarchy.ruby_system.l2_controllers.delayHistogram::mean     0.713320                       # delay_histogram (Unspecified)
board.cache_hierarchy.ruby_system.l2_controllers.delayHistogram::stdev     2.334307                       # delay_histogram (Unspecified)
board.cache_hierarchy.ruby_system.l2_controllers.delayHistogram::0-7      3181573     91.89%     91.89% # delay_histogram (Unspecified)
board.cache_hierarchy.ruby_system.l2_controllers.delayHistogram::8-15       276337      7.98%     99.87% # delay_histogram (Unspecified)
board.cache_hierarchy.ruby_system.l2_controllers.delayHistogram::16-23         4203      0.12%     99.99% # delay_histogram (Unspecified)
board.cache_hierarchy.ruby_system.l2_controllers.delayHistogram::24-31          237      0.01%    100.00% # delay_histogram (Unspecified)
board.cache_hierarchy.ruby_system.l2_controllers.delayHistogram::32-39           42      0.00%    100.00% # delay_histogram (Unspecified)
board.cache_hierarchy.ruby_system.l2_controllers.delayHistogram::40-47           22      0.00%    100.00% # delay_histogram (Unspecified)
board.cache_hierarchy.ruby_system.l2_controllers.delayHistogram::48-55            9      0.00%    100.00% # delay_histogram (Unspecified)
board.cache_hierarchy.ruby_system.l2_controllers.delayHistogram::total      3462423                       # delay_histogram (Unspecified)
board.cache_hierarchy.ruby_system.l2_controllers.DirRequestFromL2Cache.m_msg_count       502896                       # Number of messages passed the buffer (Count)
board.cache_hierarchy.ruby_system.l2_controllers.DirRequestFromL2Cache.m_buf_msgs     0.002157                       # Average number of messages in buffer ((Count/Tick))
board.cache_hierarchy.ruby_system.l2_controllers.L1RequestFromL2Cache.m_msg_count        82273                       # Number of messages passed the buffer (Count)
board.cache_hierarchy.ruby_system.l2_controllers.L1RequestFromL2Cache.m_buf_msgs     0.000176                       # Average number of messages in buffer ((Count/Tick))
board.cache_hierarchy.ruby_system.l2_controllers.L1RequestToL2Cache.m_msg_count      1716354                       # Number of messages passed the buffer (Count)
board.cache_hierarchy.ruby_system.l2_controllers.L1RequestToL2Cache.m_buf_msgs     0.003686                       # Average number of messages in buffer ((Count/Tick))
board.cache_hierarchy.ruby_system.l2_controllers.L1RequestToL2Cache.m_stall_time       805860                       # Total number of ticks messages were stalled in this buffer (Tick)
board.cache_hierarchy.ruby_system.l2_controllers.L1RequestToL2Cache.m_stall_count          149                       # Number of times messages were stalled (Count)
board.cache_hierarchy.ruby_system.l2_controllers.L1RequestToL2Cache.m_avg_stall_time     0.469519                       # Average stall ticks per message ((Tick/Count))
board.cache_hierarchy.ruby_system.l2_controllers.L2cache.m_demand_hits       565047                       # Number of cache demand hits (Unspecified)
board.cache_hierarchy.ruby_system.l2_controllers.L2cache.m_demand_misses       502896                       # Number of cache demand misses (Unspecified)
board.cache_hierarchy.ruby_system.l2_controllers.L2cache.m_demand_accesses      1067943                       # Number of cache demand accesses (Unspecified)
board.cache_hierarchy.ruby_system.l2_controllers.power_state.pwrStateResidencyTicks::UNDEFINED 6528725526546                       # Cumulative time (in ticks) in various power states (Tick)
board.cache_hierarchy.ruby_system.l2_controllers.responseFromL2Cache.m_msg_count      2219251                       # Number of messages passed the buffer (Count)
board.cache_hierarchy.ruby_system.l2_controllers.responseFromL2Cache.m_buf_msgs     0.007049                       # Average number of messages in buffer ((Count/Tick))
board.cache_hierarchy.ruby_system.l2_controllers.responseToL2Cache.m_msg_count      1088117                       # Number of messages passed the buffer (Count)
board.cache_hierarchy.ruby_system.l2_controllers.responseToL2Cache.m_buf_msgs     0.002333                       # Average number of messages in buffer ((Count/Tick))
board.cache_hierarchy.ruby_system.l2_controllers.unblockToL2Cache.m_msg_count       657952                       # Number of messages passed the buffer (Count)
board.cache_hierarchy.ruby_system.l2_controllers.unblockToL2Cache.m_buf_msgs     0.001411                       # Average number of messages in buffer ((Count/Tick))
board.cache_hierarchy.ruby_system.network.msg_count.Control    189355276                       (Unspecified)
board.cache_hierarchy.ruby_system.network.msg_byte.Control   1514842208                       (Unspecified)
board.cache_hierarchy.ruby_system.network.msg_count.Request_Control     19239942                       (Unspecified)
board.cache_hierarchy.ruby_system.network.msg_byte.Request_Control    153919536                       (Unspecified)
board.cache_hierarchy.ruby_system.network.msg_count.Response_Data    210912121                       (Unspecified)
board.cache_hierarchy.ruby_system.network.msg_byte.Response_Data  15185672712                       (Unspecified)
board.cache_hierarchy.ruby_system.network.msg_count.Response_Control    255538212                       (Unspecified)
board.cache_hierarchy.ruby_system.network.msg_byte.Response_Control   2044305696                       (Unspecified)
board.cache_hierarchy.ruby_system.network.msg_count.Writeback_Data     32629124                       (Unspecified)
board.cache_hierarchy.ruby_system.network.msg_byte.Writeback_Data   2349296928                       (Unspecified)
board.cache_hierarchy.ruby_system.network.msg_count.Writeback_Control     44145854                       (Unspecified)
board.cache_hierarchy.ruby_system.network.msg_byte.Writeback_Control    353166832                       (Unspecified)
board.cache_hierarchy.ruby_system.network.int_links0.buffers0.m_msg_count      1716354                       # Number of messages passed the buffer (Count)
board.cache_hierarchy.ruby_system.network.int_links0.buffers0.m_buf_msgs     0.003680                       # Average number of messages in buffer ((Count/Tick))
board.cache_hierarchy.ruby_system.network.int_links0.buffers1.m_msg_count        82274                       # Number of messages passed the buffer (Count)
board.cache_hierarchy.ruby_system.network.int_links0.buffers1.m_buf_msgs     0.000176                       # Average number of messages in buffer ((Count/Tick))
board.cache_hierarchy.ruby_system.network.int_links0.buffers2.m_msg_count       657952                       # Number of messages passed the buffer (Count)
board.cache_hierarchy.ruby_system.network.int_links0.buffers2.m_buf_msgs     0.001411                       # Average number of messages in buffer ((Count/Tick))
board.cache_hierarchy.ruby_system.network.int_links11.buffers1.m_msg_count       503969                       # Number of messages passed the buffer (Count)
board.cache_hierarchy.ruby_system.network.int_links11.buffers1.m_buf_msgs     0.001081                       # Average number of messages in buffer ((Count/Tick))
board.cache_hierarchy.ruby_system.network.int_links13.buffers1.m_msg_count        31397                       # Number of messages passed the buffer (Count)
board.cache_hierarchy.ruby_system.network.int_links13.buffers1.m_buf_msgs     0.000067                       # Average number of messages in buffer ((Count/Tick))
board.cache_hierarchy.ruby_system.network.int_links16.buffers1.m_msg_count       501874                       # Number of messages passed the buffer (Count)
board.cache_hierarchy.ruby_system.network.int_links16.buffers1.m_buf_msgs     0.001076                       # Average number of messages in buffer ((Count/Tick))
board.cache_hierarchy.ruby_system.network.int_links18.buffers1.m_msg_count        31239                       # Number of messages passed the buffer (Count)
board.cache_hierarchy.ruby_system.network.int_links18.buffers1.m_buf_msgs     0.000067                       # Average number of messages in buffer ((Count/Tick))
board.cache_hierarchy.ruby_system.network.int_links22.buffers0.m_msg_count        31397                       # Number of messages passed the buffer (Count)
board.cache_hierarchy.ruby_system.network.int_links22.buffers0.m_buf_msgs     0.000067                       # Average number of messages in buffer ((Count/Tick))
board.cache_hierarchy.ruby_system.network.int_links23.buffers0.m_msg_count        31239                       # Number of messages passed the buffer (Count)
board.cache_hierarchy.ruby_system.network.int_links23.buffers0.m_buf_msgs     0.000067                       # Average number of messages in buffer ((Count/Tick))
board.cache_hierarchy.ruby_system.network.int_links5.buffers1.m_msg_count      1716354                       # Number of messages passed the buffer (Count)
board.cache_hierarchy.ruby_system.network.int_links5.buffers1.m_buf_msgs     0.003680                       # Average number of messages in buffer ((Count/Tick))
board.cache_hierarchy.ruby_system.network.int_links5.buffers2.m_msg_count        82274                       # Number of messages passed the buffer (Count)
board.cache_hierarchy.ruby_system.network.int_links5.buffers2.m_buf_msgs     0.000176                       # Average number of messages in buffer ((Count/Tick))
board.cache_hierarchy.ruby_system.network.int_links6.buffers0.m_msg_count       251963                       # Number of messages passed the buffer (Count)
board.cache_hierarchy.ruby_system.network.int_links6.buffers0.m_buf_msgs     0.000540                       # Average number of messages in buffer ((Count/Tick))
board.cache_hierarchy.ruby_system.network.int_links6.buffers1.m_msg_count       251963                       # Number of messages passed the buffer (Count)
board.cache_hierarchy.ruby_system.network.int_links6.buffers1.m_buf_msgs     0.000540                       # Average number of messages in buffer ((Count/Tick))
board.cache_hierarchy.ruby_system.network.int_links7.buffers0.m_msg_count       250933                       # Number of messages passed the buffer (Count)
board.cache_hierarchy.ruby_system.network.int_links7.buffers0.m_buf_msgs     0.000538                       # Average number of messages in buffer ((Count/Tick))
board.cache_hierarchy.ruby_system.network.int_links7.buffers1.m_msg_count       250933                       # Number of messages passed the buffer (Count)
board.cache_hierarchy.ruby_system.network.int_links7.buffers1.m_buf_msgs     0.000538                       # Average number of messages in buffer ((Count/Tick))
board.cache_hierarchy.ruby_system.network.power_state.pwrStateResidencyTicks::UNDEFINED 6528725526546                       # Cumulative time (in ticks) in various power states (Tick)
board.cache_hierarchy.ruby_system.network.routers0.percent_links_utilized    16.395983                       (Unspecified)
board.cache_hierarchy.ruby_system.network.routers0.msg_count.Control::0     66031957                       (Unspecified)
board.cache_hierarchy.ruby_system.network.routers0.msg_bytes.Control::0    528255656                       (Unspecified)
board.cache_hierarchy.ruby_system.network.routers0.msg_count.Request_Control::2      9619971                       (Unspecified)
board.cache_hierarchy.ruby_system.network.routers0.msg_bytes.Request_Control::2     76959768                       (Unspecified)
board.cache_hierarchy.ruby_system.network.routers0.msg_count.Response_Data::1     66031847                       (Unspecified)
board.cache_hierarchy.ruby_system.network.routers0.msg_bytes.Response_Data::1   4754292984                       (Unspecified)
board.cache_hierarchy.ruby_system.network.routers0.msg_count.Response_Control::1     45165153                       (Unspecified)
board.cache_hierarchy.ruby_system.network.routers0.msg_count.Response_Control::2     36076725                       (Unspecified)
board.cache_hierarchy.ruby_system.network.routers0.msg_bytes.Response_Control::1    361321224                       (Unspecified)
board.cache_hierarchy.ruby_system.network.routers0.msg_bytes.Response_Control::2    288613800                       (Unspecified)
board.cache_hierarchy.ruby_system.network.routers0.msg_count.Writeback_Data::0     16157771                       (Unspecified)
board.cache_hierarchy.ruby_system.network.routers0.msg_count.Writeback_Data::1       156791                       (Unspecified)
board.cache_hierarchy.ruby_system.network.routers0.msg_bytes.Writeback_Data::0   1163359512                       (Unspecified)
board.cache_hierarchy.ruby_system.network.routers0.msg_bytes.Writeback_Data::1     11288952                       (Unspecified)
board.cache_hierarchy.ruby_system.network.routers0.msg_count.Writeback_Control::0     19544093                       (Unspecified)
board.cache_hierarchy.ruby_system.network.routers0.msg_bytes.Writeback_Control::0    156352744                       (Unspecified)
board.cache_hierarchy.ruby_system.network.routers0.port_buffers1.m_msg_count    101733820                       # Number of messages passed the buffer (Count)
board.cache_hierarchy.ruby_system.network.routers0.port_buffers1.m_buf_msgs     0.005189                       # Average number of messages in buffer ((Count/Tick))
board.cache_hierarchy.ruby_system.network.routers0.port_buffers2.m_msg_count      9619971                       # Number of messages passed the buffer (Count)
board.cache_hierarchy.ruby_system.network.routers0.port_buffers2.m_buf_msgs     0.000491                       # Average number of messages in buffer ((Count/Tick))
board.cache_hierarchy.ruby_system.network.routers0.port_buffers3.m_msg_count    101733821                       # Number of messages passed the buffer (Count)
board.cache_hierarchy.ruby_system.network.routers0.port_buffers3.m_buf_msgs     0.008493                       # Average number of messages in buffer ((Count/Tick))
[...]
board.processor.switch.core.fetch.nisnDist::2     12659065      2.76%     51.46% # Number of instructions fetched each cycle (Total) (Count)
board.processor.switch.core.fetch.nisnDist::3     27316346      5.96%     57.42% # Number of instructions fetched each cycle (Total) (Count)
board.processor.switch.core.fetch.nisnDist::4     12210166      2.67%     60.09% # Number of instructions fetched each cycle (Total) (Count)
board.processor.switch.core.fetch.nisnDist::5     17591908      3.84%     63.93% # Number of instructions fetched each cycle (Total) (Count)
board.processor.switch.core.fetch.nisnDist::6     20600862      4.50%     68.43% # Number of instructions fetched each cycle (Total) (Count)
board.processor.switch.core.fetch.nisnDist::7     16030466      3.50%     71.93% # Number of instructions fetched each cycle (Total) (Count)
board.processor.switch.core.fetch.nisnDist::8    128566169     28.07%    100.00% # Number of instructions fetched each cycle (Total) (Count)
board.processor.switch.core.fetch.nisnDist::overflows            0      0.00%    100.00% # Number of instructions fetched each cycle (Total) (Count)
board.processor.switch.core.fetch.nisnDist::min_value            0                       # Number of instructions fetched each cycle (Total) (Count)
board.processor.switch.core.fetch.nisnDist::max_value            8                       # Number of instructions fetched each cycle (Total) (Count)
board.processor.switch.core.fetch.nisnDist::total    457959443                       # Number of instructions fetched each cycle (Total) (Count)
board.processor.switch.core.fetchStats0.numInsts    817002485                       # Number of instructions fetched (thread level) (Count)
board.processor.switch.core.fetchStats0.numOps            0                       # Number of ops (including micro ops) fetched (thread level) (Count)
board.processor.switch.core.fetchStats0.fetchRate     1.743169                       # Number of inst fetches per cycle ((Count/Cycle))
board.processor.switch.core.fetchStats0.numBranches    184588435                       # Number of branches fetched (Count)
board.processor.switch.core.fetchStats0.branchRate     0.393841                       # Number of branch fetches per cycle (Ratio)
board.processor.switch.core.fetchStats0.icacheStallCycles    135151356                       # ICache total stall cycles (Cycle)
board.processor.switch.core.fetchStats0.numFetchSuspends            0                       # Number of times Execute suspended instruction fetching (Count)
board.processor.switch.core.iew.idleCycles            0                       # Number of cycles IEW is idle (Cycle)
board.processor.switch.core.iew.squashCycles      1356233                       # Number of cycles IEW is squashing (Cycle)
board.processor.switch.core.iew.blockCycles      9191961                       # Number of cycles IEW is blocking (Cycle)
board.processor.switch.core.iew.unblockCycles     17379007                       # Number of cycles IEW is unblocking (Cycle)
board.processor.switch.core.iew.dispatchedInsts   1498769588                       # Number of instructions dispatched to IQ (Count)
board.processor.switch.core.iew.dispSquashedInsts        18420                       # Number of squashed instructions skipped by dispatch (Count)
board.processor.switch.core.iew.dispLoadInsts    185377061                       # Number of dispatched load instructions (Count)
board.processor.switch.core.iew.dispStoreInsts    102612065                       # Number of dispatched store instructions (Count)
board.processor.switch.core.iew.dispNonSpecInsts       118466                       # Number of dispatched non-speculative instructions (Count)
board.processor.switch.core.iew.iqFullEvents        39378                       # Number of times the IQ has become full, causing a stall (Count)
board.processor.switch.core.iew.lsqFullEvents     17294319                       # Number of times the LSQ has become full, causing a stall (Count)
board.processor.switch.core.iew.memOrderViolationEvents        41926                       # Number of memory order violations (Count)
board.processor.switch.core.iew.predictedTakenIncorrect       628411                       # Number of branches that were predicted taken incorrectly (Count)
board.processor.switch.core.iew.predictedNotTakenIncorrect       987231                       # Number of branches that were predicted not taken incorrectly (Count)
board.processor.switch.core.iew.branchMispredicts      1615642                       # Number of branch mispredicts detected at execute (Count)
board.processor.switch.core.iew.instsToCommit   1482233423                       # Cumulative count of insts sent to commit (Count)
board.processor.switch.core.iew.writebackCount   1481864943                       # Cumulative count of insts written-back (Count)
board.processor.switch.core.iew.producerInst   1071421553                       # Number of instructions producing a value (Count)
board.processor.switch.core.iew.consumerInst   1688277054                       # Number of instructions consuming a value (Count)
board.processor.switch.core.iew.wbRate       3.161729                       # Insts written-back per cycle ((Count/Cycle))
board.processor.switch.core.iew.wbFanout     0.634624                       # Average fanout of values written-back ((Count/Count))
board.processor.switch.core.lsq0.forwLoads     33303601                       # Number of loads that had data forwarded from stores (Count)
board.processor.switch.core.lsq0.squashedLoads      6502428                       # Number of loads squashed (Count)
board.processor.switch.core.lsq0.ignoredResponses         9080                       # Number of memory responses ignored because the instruction is squashed (Count)
board.processor.switch.core.lsq0.memOrderViolation        41926                       # Number of memory ordering violations (Count)
board.processor.switch.core.lsq0.squashedStores      2690395                       # Number of stores squashed (Count)
board.processor.switch.core.lsq0.rescheduledLoads       438139                       # Number of loads that were rescheduled (Count)
board.processor.switch.core.lsq0.blockedByCache        59888                       # Number of times an access to memory failed due to the cache being blocked (Count)
board.processor.switch.core.lsq0.loadToUse::samples    178866510                       # Distribution of cycle latency between the first time a load is issued and its completion (Unspecified)
board.processor.switch.core.lsq0.loadToUse::mean     3.606979                       # Distribution of cycle latency between the first time a load is issued and its completion (Unspecified)
board.processor.switch.core.lsq0.loadToUse::stdev    13.485044                       # Distribution of cycle latency between the first time a load is issued and its completion (Unspecified)
board.processor.switch.core.lsq0.loadToUse::0-9    177598342     99.29%     99.29% # Distribution of cycle latency between the first time a load is issued and its completion (Unspecified)
board.processor.switch.core.lsq0.loadToUse::10-19       320351      0.18%     99.47% # Distribution of cycle latency between the first time a load is issued and its completion (Unspecified)
board.processor.switch.core.lsq0.loadToUse::20-29        66063      0.04%     99.51% # Distribution of cycle latency between the first time a load is issued and its completion (Unspecified)
board.processor.switch.core.lsq0.loadToUse::30-39        67597      0.04%     99.54% # Distribution of cycle latency between the first time a load is issued and its completion (Unspecified)
board.processor.switch.core.lsq0.loadToUse::40-49        18569      0.01%     99.56% # Distribution of cycle latency between the first time a load is issued and its completion (Unspecified)
board.processor.switch.core.lsq0.loadToUse::50-59        13959      0.01%     99.56% # Distribution of cycle latency between the first time a load is issued and its completion (Unspecified)
board.processor.switch.core.lsq0.loadToUse::60-69         9344      0.01%     99.57% # Distribution of cycle latency between the first time a load is issued and its completion (Unspecified)
board.processor.switch.core.lsq0.loadToUse::70-79         8420      0.00%     99.57% # Distribution of cycle latency between the first time a load is issued and its completion (Unspecified)
board.processor.switch.core.lsq0.loadToUse::80-89         8500      0.00%     99.58% # Distribution of cycle latency between the first time a load is issued and its completion (Unspecified)
board.processor.switch.core.lsq0.loadToUse::90-99        10671      0.01%     99.58% # Distribution of cycle latency between the first time a load is issued and its completion (Unspecified)
board.processor.switch.core.lsq0.loadToUse::100-109        12558      0.01%     99.59% # Distribution of cycle latency between the first time a load is issued and its completion (Unspecified)
board.processor.switch.core.lsq0.loadToUse::110-119        14980      0.01%     99.60% # Distribution of cycle latency between the first time a load is issued and its completion (Unspecified)
board.processor.switch.core.lsq0.loadToUse::120-129        36850      0.02%     99.62% # Distribution of cycle latency between the first time a load is issued and its completion (Unspecified)
board.processor.switch.core.lsq0.loadToUse::130-139       154961      0.09%     99.71% # Distribution of cycle latency between the first time a load is issued and its completion (Unspecified)
board.processor.switch.core.lsq0.loadToUse::140-149       315291      0.18%     99.88% # Distribution of cycle latency between the first time a load is issued and its completion (Unspecified)
board.processor.switch.core.lsq0.loadToUse::150-159        11614      0.01%     99.89% # Distribution of cycle latency between the first time a load is issued and its completion (Unspecified)
board.processor.switch.core.lsq0.loadToUse::160-169         4486      0.00%     99.89% # Distribution of cycle latency between the first time a load is issued and its completion (Unspecified)
board.processor.switch.core.lsq0.loadToUse::170-179         7503      0.00%     99.90% # Distribution of cycle latency between the first time a load is issued and its completion (Unspecified)
board.processor.switch.core.lsq0.loadToUse::180-189        78731      0.04%     99.94% # Distribution of cycle latency between the first time a load is issued and its completion (Unspecified)
board.processor.switch.core.lsq0.loadToUse::190-199        32885      0.02%     99.96% # Distribution of cycle latency between the first time a load is issued and its completion (Unspecified)
board.processor.switch.core.lsq0.loadToUse::200-209         6994      0.00%     99.96% # Distribution of cycle latency between the first time a load is issued and its completion (Unspecified)
board.processor.switch.core.lsq0.loadToUse::210-219         3143      0.00%     99.96% # Distribution of cycle latency between the first time a load is issued and its completion (Unspecified)
board.processor.switch.core.lsq0.loadToUse::220-229         8679      0.00%     99.97% # Distribution of cycle latency between the first time a load is issued and its completion (Unspecified)
board.processor.switch.core.lsq0.loadToUse::230-239         6274      0.00%     99.97% # Distribution of cycle latency between the first time a load is issued and its completion (Unspecified)
board.processor.switch.core.lsq0.loadToUse::240-249         5264      0.00%     99.98% # Distribution of cycle latency between the first time a load is issued and its completion (Unspecified)
board.processor.switch.core.lsq0.loadToUse::250-259         3230      0.00%     99.98% # Distribution of cycle latency between the first time a load is issued and its completion (Unspecified)
board.processor.switch.core.lsq0.loadToUse::260-269         1038      0.00%     99.98% # Distribution of cycle latency between the first time a load is issued and its completion (Unspecified)
board.processor.switch.core.lsq0.loadToUse::270-279         1059      0.00%     99.98% # Distribution of cycle latency between the first time a load is issued and its completion (Unspecified)
board.processor.switch.core.lsq0.loadToUse::280-289         1114      0.00%     99.98% # Distribution of cycle latency between the first time a load is issued and its completion (Unspecified)
board.processor.switch.core.lsq0.loadToUse::290-299         1150      0.00%     99.98% # Distribution of cycle latency between the first time a load is issued and its completion (Unspecified)
board.processor.switch.core.lsq0.loadToUse::overflows        36890      0.02%    100.00% # Distribution of cycle latency between the first time a load is issued and its completion (Unspecified)
board.processor.switch.core.lsq0.loadToUse::min_value            2                       # Distribution of cycle latency between the first time a load is issued and its completion (Unspecified)
board.processor.switch.core.lsq0.loadToUse::max_value         1957                       # Distribution of cycle latency between the first time a load is issued and its completion (Unspecified)
board.processor.switch.core.lsq0.loadToUse::total    178866510                       # Distribution of cycle latency between the first time a load is issued and its completion (Unspecified)
board.processor.switch.core.mmu.dtb.rdAccesses    183400712                       # TLB accesses on read requests (Count)
board.processor.switch.core.mmu.dtb.wrAccesses    101512912                       # TLB accesses on write requests (Count)
board.processor.switch.core.mmu.dtb.rdMisses       184854                       # TLB misses on read requests (Count)
board.processor.switch.core.mmu.dtb.wrMisses        83145                       # TLB misses on write requests (Count)
board.processor.switch.core.mmu.dtb.walker.power_state.pwrStateResidencyTicks::UNDEFINED 6529783294386                       # Cumulative time (in ticks) in various power states (Tick)
board.processor.switch.core.mmu.itb.rdAccesses            0                       # TLB accesses on read requests (Count)
board.processor.switch.core.mmu.itb.wrAccesses    127745911                       # TLB accesses on write requests (Count)
board.processor.switch.core.mmu.itb.rdMisses            0                       # TLB misses on read requests (Count)
board.processor.switch.core.mmu.itb.wrMisses        77916                       # TLB misses on write requests (Count)
board.processor.switch.core.mmu.itb.walker.power_state.pwrStateResidencyTicks::UNDEFINED 6529783294386                       # Cumulative time (in ticks) in various power states (Tick)
board.processor.switch.core.power_state.numTransitions            2                       # Number of power state transitions (Count)
board.processor.switch.core.power_state.ticksClkGated::samples            1                       # Distribution of time spent in the clock gated state (Tick)
board.processor.switch.core.power_state.ticksClkGated::mean    279785268                       # Distribution of time spent in the clock gated state (Tick)
board.processor.switch.core.power_state.ticksClkGated::1000-5e+10            1    100.00%    100.00% # Distribution of time spent in the clock gated state (Tick)
board.processor.switch.core.power_state.ticksClkGated::min_value    279785268                       # Distribution of time spent in the clock gated state (Tick)
board.processor.switch.core.power_state.ticksClkGated::max_value    279785268                       # Distribution of time spent in the clock gated state (Tick)
board.processor.switch.core.power_state.ticksClkGated::total            1                       # Distribution of time spent in the clock gated state (Tick)
board.processor.switch.core.power_state.pwrStateResidencyTicks::ON 154751837922                       # Cumulative time (in ticks) in various power states (Tick)
board.processor.switch.core.power_state.pwrStateResidencyTicks::CLK_GATED    279785268                       # Cumulative time (in ticks) in various power states (Tick)
board.processor.switch.core.power_state.pwrStateResidencyTicks::OFF 6374751671196                       # Cumulative time (in ticks) in various power states (Tick)
board.processor.switch.core.rename.squashCycles      1356233                       # Number of cycles rename is squashing (Cycle)
board.processor.switch.core.rename.idleCycles    141936469                       # Number of cycles rename is idle (Cycle)
board.processor.switch.core.rename.blockCycles     33975921                       # Number of cycles rename is blocking (Cycle)
board.processor.switch.core.rename.serializeStallCycles      4239553                       # count of cycles rename stalled for serializing inst (Cycle)
board.processor.switch.core.rename.runCycles    241168670                       # Number of cycles rename is running (Cycle)
board.processor.switch.core.rename.unblockCycles     35282597                       # Number of cycles rename is unblocking (Cycle)
board.processor.switch.core.rename.renamedInsts   1506701586                       # Number of instructions processed by rename (Count)
board.processor.switch.core.rename.ROBFullEvents       285850                       # Number of times rename has blocked due to ROB full (Count)
board.processor.switch.core.rename.IQFullEvents      6625707                       # Number of times rename has blocked due to IQ full (Count)
board.processor.switch.core.rename.LQFullEvents     10360481                       # Number of times rename has blocked due to LQ full (Count)
board.processor.switch.core.rename.SQFullEvents     19156423                       # Number of times rename has blocked due to SQ full (Count)
board.processor.switch.core.rename.renamedOperands   2474021891                       # Number of destination operands rename has renamed (Count)
board.processor.switch.core.rename.lookups   5057546418                       # Number of register rename lookups that rename has made (Count)
board.processor.switch.core.rename.intLookups   1882258420                       # Number of integer rename lookups (Count)
board.processor.switch.core.rename.fpLookups     38952924                       # Number of floating rename lookups (Count)
board.processor.switch.core.rename.committedMaps   2387049712                       # Number of HB maps that are committed (Count)
board.processor.switch.core.rename.undoneMaps     86972191                       # Number of HB maps that are undone due to squashing (Count)
board.processor.switch.core.rename.serializing       175809                       # count of serializing insts renamed (Count)
board.processor.switch.core.rename.tempSerializing       125058                       # count of temporary serializing insts renamed (Count)
board.processor.switch.core.rename.skidInsts     30331114                       # count of insts added to the skid buffer (Count)
board.processor.switch.core.rob.reads      1868422880                       # The number of ROB reads (Count)
board.processor.switch.core.rob.writes     3003565581                       # The number of ROB writes (Count)
board.processor.switch.core.thread_0.numInsts    778140619                       # Number of Instructions committed (Count)
board.processor.switch.core.thread_0.numOps   1455269443                       # Number of Ops committed (Count)
board.processor.switch.core.thread_0.numMemRefs            0                       # Number of Memory References (Count)
board.workload.inst.arm                             0                       # number of arm instructions executed (Count)
board.workload.inst.quiesce                         0                       # number of quiesce instructions executed (Count)

---------- End Simulation Statistics   ----------
